837
# Comment line
Se -15.12600000 -9.07613000 -0.00083524
Se -15.12650000 -6.05071000  3.02500000
Se -15.12650000 -3.02500000  6.05071000
Se -15.12600000  0.00083524  9.07613000
Se -12.10120000 -12.10120000 -0.00117872
Cd -13.61270000 -10.58830000  1.51160000
Se -12.10110000 -9.07556000  3.02471000
Cd -13.61310000 -7.56289000  4.53741000
Se -12.10100000 -6.05002000  6.05002000
Cd -13.61310000 -4.53741000  7.56289000
Se -12.10110000 -3.02471000  9.07556000
Cd -13.61270000 -1.51160000  10.58830000
Se -12.10120000  0.00117872  12.10120000
Se -9.07613000 -15.12600000 -0.00083524
Cd -10.58830000 -13.61270000  1.51160000
Se -9.07556000 -12.10110000  3.02471000
Cd -10.58770000 -10.58770000  4.53696000
Se -9.07534000 -9.07534000  6.04967000
Cd -10.58730000 -7.56194000  7.56194000
Se -9.07534000 -6.04967000  9.07534000
Cd -10.58770000 -4.53696000  10.58770000
Se -9.07556000 -3.02471000  12.10110000
Cd -10.58830000 -1.51160000  13.61270000
Se -9.07613000  0.00083524  15.12600000
Se -6.05071000 -15.12650000  3.02500000
Cd -7.56289000 -13.61310000  4.53741000
Se -6.05002000 -12.10100000  6.05002000
Cd -7.56194000 -10.58730000  7.56194000
Se -6.04967000 -9.07534000  9.07534000
Cd -7.56194000 -7.56194000  10.58730000
Se -6.05002000 -6.05002000  12.10100000
Cd -7.56289000 -4.53741000  13.61310000
Se -6.05071000 -3.02500000  15.12650000
Se -3.02500000 -15.12650000  6.05071000
Cd -4.53741000 -13.61310000  7.56289000
Se -3.02471000 -12.10110000  9.07556000
Cd -4.53696000 -10.58770000  10.58770000
Se -3.02471000 -9.07556000  12.10110000
Cd -4.53741000 -7.56289000  13.61310000
Se -3.02500000 -6.05071000  15.12650000
Se  0.00083524 -15.12600000  9.07613000
Cd -1.51160000 -13.61270000  10.58830000
Se  0.00117872 -12.10120000  12.10120000
Cd -1.51160000 -10.58830000  13.61270000
Se  0.00083524 -9.07613000  15.12600000
Se -15.12620000 -6.05160000 -3.02652000
Se -15.12690000 -3.02563000 -0.00041697
Se -15.12690000  0.00041697  3.02563000
Se -15.12620000  3.02652000  6.05160000
Se -12.10120000 -12.10120000 -6.05139000
Cd -13.61360000 -10.58910000 -4.53887000
Se -12.10150000 -9.07638000 -3.02640000
Cd -13.61380000 -7.56397000 -1.51364000
Se -12.10190000 -6.05084000 -0.00088601
Cd -13.61420000 -4.53840000  1.51217000
Se -12.10170000 -3.02502000  3.02502000
Cd -13.61420000 -1.51217000  4.53840000
Se -12.10190000  0.00088601  6.05084000
Cd -13.61380000  1.51364000  7.56397000
Se -12.10150000  3.02640000  9.07638000
Cd -13.61360000  4.53887000  10.58910000
Se -12.10120000  6.05139000  12.10120000
Cd -10.58910000 -13.61360000 -4.53887000
Se -9.07638000 -12.10150000 -3.02640000
Cd -10.58880000 -10.58880000 -1.51409000
Se -9.07611000 -9.07611000 -0.00122790
Cd -10.58870000 -7.56289000  1.51155000
Se -9.07650000 -6.05085000  3.02514000
Cd -10.58850000 -4.53728000  4.53728000
Se -9.07650000 -3.02514000  6.05085000
Cd -10.58870000 -1.51155000  7.56289000
Se -9.07611000  0.00122790  9.07611000
Cd -10.58880000  1.51409000  10.58880000
Se -9.07638000  3.02640000  12.10150000
Cd -10.58910000  4.53887000  13.61360000
Se -6.05160000 -15.12620000 -3.02652000
Cd -7.56397000 -13.61380000 -1.51364000
Se -6.05084000 -12.10190000 -0.00088601
Cd -7.56289000 -10.58870000  1.51155000
Se -6.05085000 -9.07650000  3.02514000
Cd -7.56278000 -7.56278000  4.53722000
Se -6.05140000 -6.05140000  6.05140000
Cd -7.56278000 -4.53722000  7.56278000
Se -6.05085000 -3.02514000  9.07650000
Cd -7.56289000 -1.51155000  10.58870000
Se -6.05084000  0.00088601  12.10190000
Cd -7.56397000  1.51364000  13.61380000
Se -6.05160000  3.02652000  15.12620000
Se -3.02563000 -15.12690000 -0.00041697
Cd -4.53840000 -13.61420000  1.51217000
Se -3.02502000 -12.10170000  3.02502000
Cd -4.53728000 -10.58850000  4.53728000
Se -3.02514000 -9.07650000  6.05085000
Cd -4.53722000 -7.56278000  7.56278000
Se -3.02514000 -6.05085000  9.07650000
Cd -4.53728000 -4.53728000  10.58850000
Se -3.02502000 -3.02502000  12.10170000
Cd -4.53840000 -1.51217000  13.61420000
Se -3.02563000  0.00041697  15.12690000
Se  0.00041697 -15.12690000  3.02563000
Cd -1.51217000 -13.61420000  4.53840000
Se  0.00088601 -12.10190000  6.05084000
Cd -1.51155000 -10.58870000  7.56289000
Se  0.00122790 -9.07611000  9.07611000
Cd -1.51155000 -7.56289000  10.58870000
Se  0.00088601 -6.05084000  12.10190000
Cd -1.51217000 -4.53840000  13.61420000
Se  0.00041697 -3.02563000  15.12690000
Se  3.02652000 -15.12620000  6.05160000
Cd  1.51364000 -13.61380000  7.56397000
Se  3.02640000 -12.10150000  9.07638000
Cd  1.51409000 -10.58880000  10.58880000
Se  3.02640000 -9.07638000  12.10150000
Cd  1.51364000 -7.56397000  13.61380000
Se  3.02652000 -6.05160000  15.12620000
Cd  4.53887000 -13.61360000  10.58910000
Se  6.05139000 -12.10120000  12.10120000
Cd  4.53887000 -10.58910000  13.61360000
Se -15.12620000 -3.02652000 -6.05160000
Se -15.12690000 -0.00041697 -3.02563000
Se -15.12690000  3.02563000  0.00041697
Se -15.12620000  6.05160000  3.02652000
Se -12.10130000 -9.07638000 -9.07638000
Cd -13.61360000 -7.56395000 -7.56395000
Se -12.10130000 -6.05133000 -6.05133000
Cd -13.61400000 -4.53886000 -4.53886000
Se -12.10190000 -3.02599000 -3.02599000
Cd -13.61430000 -1.51328000 -1.51328000
Se -12.10180000  0.00000000  0.00000000
Cd -13.61430000  1.51328000  1.51328000
Se -12.10190000  3.02599000  3.02599000
Cd -13.61400000  4.53886000  4.53886000
Se -12.10130000  6.05133000  6.05133000
Cd -13.61360000  7.56395000  7.56395000
Se -12.10130000  9.07638000  9.07638000
Se -9.07638000 -12.10130000 -9.07638000
Cd -10.58850000 -10.58850000 -7.56363000
Se -9.07561000 -9.07561000 -6.05109000
Cd -10.58870000 -7.56360000 -4.53852000
Se -9.07661000 -6.05114000 -3.02631000
Cd -10.58930000 -4.53852000 -1.51369000
Se -9.07825000 -3.02556000 -0.00035706
Cd -10.58950000 -1.51238000  1.51238000
Se -9.07825000  0.00035706  3.02556000
Cd -10.58930000  1.51369000  4.53852000
Se -9.07661000  3.02631000  6.05114000
Cd -10.58870000  4.53852000  7.56360000
Se -9.07561000  6.05109000  9.07561000
Cd -10.58850000  7.56363000  10.58850000
Se -9.07638000  9.07638000  12.10130000
Cd -7.56395000 -13.61360000 -7.56395000
Se -6.05133000 -12.10130000 -6.05133000
Cd -7.56360000 -10.58870000 -4.53852000
Se -6.05114000 -9.07661000 -3.02631000
Cd -7.56405000 -7.56405000 -1.51465000
Se -6.05298000 -6.05298000 -0.00034802
Cd -7.56543000 -4.53880000  1.51146000
Se -6.05418000 -3.02680000  3.02680000
Cd -7.56543000 -1.51146000  4.53880000
Se -6.05298000  0.00034802  6.05298000
Cd -7.56405000  1.51465000  7.56405000
Se -6.05114000  3.02631000  9.07661000
Cd -7.56360000  4.53852000  10.58870000
Se -6.05133000  6.05133000  12.10130000
Cd -7.56395000  7.56395000  13.61360000
Se -3.02652000 -15.12620000 -6.05160000
Cd -4.53886000 -13.61400000 -4.53886000
Se -3.02599000 -12.10190000 -3.02599000
Cd -4.53852000 -10.58930000 -1.51369000
Se -3.02556000 -9.07825000 -0.00035706
Cd -4.53880000 -7.56543000  1.51146000
Se -3.02680000 -6.05418000  3.02680000
Cd -4.53935000 -4.53935000  4.53935000
Se -3.02680000 -3.02680000  6.05418000
Cd -4.53880000 -1.51146000  7.56543000
Se -3.02556000  0.00035706  9.07825000
Cd -4.53852000  1.51369000  10.58930000
Se -3.02599000  3.02599000  12.10190000
Cd -4.53886000  4.53886000  13.61400000
Se -3.02652000  6.05160000  15.12620000
Se -0.00041697 -15.12690000 -3.02563000
Cd -1.51328000 -13.61430000 -1.51328000
Se  0.00000000 -12.10180000  0.00000000
Cd -1.51238000 -10.58950000  1.51238000
Se  0.00035706 -9.07825000  3.02556000
Cd -1.51146000 -7.56543000  4.53880000
Se  0.00034802 -6.05298000  6.05298000
Cd -1.51146000 -4.53880000  7.56543000
Se  0.00035706 -3.02556000  9.07825000
Cd -1.51238000 -1.51238000  10.58950000
Se -0.00000000 -0.00000000  12.10180000
Cd -1.51328000  1.51328000  13.61430000
Se -0.00041697  3.02563000  15.12690000
Se  3.02563000 -15.12690000  0.00041697
Cd  1.51328000 -13.61430000  1.51328000
Se  3.02599000 -12.10190000  3.02599000
Cd  1.51369000 -10.58930000  4.53852000
Se  3.02631000 -9.07661000  6.05114000
Cd  1.51465000 -7.56405000  7.56405000
Se  3.02631000 -6.05114000  9.07661000
Cd  1.51369000 -4.53852000  10.58930000
Se  3.02599000 -3.02599000  12.10190000
Cd  1.51328000 -1.51328000  13.61430000
Se  3.02563000 -0.00041697  15.12690000
Se  6.05160000 -15.12620000  3.02652000
Cd  4.53886000 -13.61400000  4.53886000
Se  6.05133000 -12.10130000  6.05133000
Cd  4.53852000 -10.58870000  7.56360000
Se  6.05109000 -9.07561000  9.07561000
Cd  4.53852000 -7.56360000  10.58870000
Se  6.05133000 -6.05133000  12.10130000
Cd  4.53886000 -4.53886000  13.61400000
Se  6.05160000 -3.02652000  15.12620000
Cd  7.56395000 -13.61360000  7.56395000
Se  9.07638000 -12.10130000  9.07638000
Cd  7.56363000 -10.58850000  10.58850000
Se  9.07638000 -9.07638000  12.10130000
Cd  7.56395000 -7.56395000  13.61360000
Se -15.12600000 -0.00083524 -9.07613000
Se -15.12650000  3.02500000 -6.05071000
Se -15.12650000  6.05071000 -3.02500000
Se -15.12600000  9.07613000  0.00083524
Se -12.10120000 -6.05139000 -12.10120000
Cd -13.61360000 -4.53887000 -10.58910000
Se -12.10150000 -3.02640000 -9.07638000
Cd -13.61380000 -1.51364000 -7.56397000
Se -12.10190000 -0.00088601 -6.05084000
Cd -13.61420000  1.51217000 -4.53840000
Se -12.10170000  3.02502000 -3.02502000
Cd -13.61420000  4.53840000 -1.51217000
Se -12.10190000  6.05084000  0.00088601
Cd -13.61380000  7.56397000  1.51364000
Se -12.10150000  9.07638000  3.02640000
Cd -13.61360000  10.58910000  4.53887000
Se -12.10120000  12.10120000  6.05139000
Se -9.07638000 -9.07638000 -12.10130000
Cd -10.58850000 -7.56363000 -10.58850000
Se -9.07561000 -6.05109000 -9.07561000
Cd -10.58870000 -4.53852000 -7.56360000
Se -9.07661000 -3.02631000 -6.05114000
Cd -10.58930000 -1.51369000 -4.53852000
Se -9.07825000 -0.00035706 -3.02556000
Cd -10.58950000  1.51238000 -1.51238000
Se -9.07825000  3.02556000  0.00035706
Cd -10.58930000  4.53852000  1.51369000
Se -9.07661000  6.05114000  3.02631000
Cd -10.58870000  7.56360000  4.53852000
Se -9.07561000  9.07561000  6.05109000
Cd -10.58850000  10.58850000  7.56363000
Se -9.07638000  12.10130000  9.07638000
Se -6.05139000 -12.10120000 -12.10120000
Cd -7.56363000 -10.58850000 -10.58850000
Se -6.05109000 -9.07561000 -9.07561000
Cd -7.56327000 -7.56327000 -7.56327000
Se -6.05163000 -6.05163000 -6.05163000
Cd -7.56468000 -4.53975000 -4.53975000
Se -6.05479000 -3.02697000 -3.02697000
Cd -7.56651000 -1.51393000 -1.51393000
Se -6.05624000 -0.00000000 -0.00000000
Cd -7.56651000  1.51393000  1.51393000
Se -6.05479000  3.02697000  3.02697000
Cd -7.56468000  4.53975000  4.53975000
Se -6.05163000  6.05163000  6.05163000
Cd -7.56327000  7.56327000  7.56327000
Se -6.05109000  9.07561000  9.07561000
Cd -7.56363000  10.58850000  10.58850000
Se -6.05139000  12.10120000  12.10120000
Cd -4.53887000 -13.61360000 -10.58910000
Se -3.02640000 -12.10150000 -9.07638000
Cd -4.53852000 -10.58870000 -7.56360000
Se -3.02631000 -9.07661000 -6.05114000
Cd -4.53975000 -7.56468000 -4.53975000
Se -3.02697000 -6.05479000 -3.02697000
Cd -4.54118000 -4.54118000 -1.51525000
Se -3.02865000 -3.02865000  0.00023789
Cd -4.54171000 -1.51316000  1.51316000
Se -3.02865000 -0.00023789  3.02865000
Cd -4.54118000  1.51525000  4.54118000
Se -3.02697000  3.02697000  6.05479000
Cd -4.53975000  4.53975000  7.56468000
Se -3.02631000  6.05114000  9.07661000
Cd -4.53852000  7.56360000  10.58870000
Se -3.02640000  9.07638000  12.10150000
Cd -4.53887000  10.58910000  13.61360000
Se -0.00083524 -15.12600000 -9.07613000
Cd -1.51364000 -13.61380000 -7.56397000
Se -0.00088601 -12.10190000 -6.05084000
Cd -1.51369000 -10.58930000 -4.53852000
Se -0.00035706 -9.07825000 -3.02556000
Cd -1.51393000 -7.56651000 -1.51393000
Se  0.00000000 -6.05624000 -0.00000000
Cd -1.51316000 -4.54171000  1.51316000
Se -0.00023789 -3.02865000  3.02865000
Cd -1.51316000 -1.51316000  4.54171000
Se  0.00000000 -0.00000000  6.05624000
Cd -1.51393000  1.51393000  7.56651000
Se -0.00035706  3.02556000  9.07825000
Cd -1.51369000  4.53852000  10.58930000
Se -0.00088601  6.05084000  12.10190000
Cd -1.51364000  7.56397000  13.61380000
Se -0.00083524  9.07613000  15.12600000
Se  3.02500000 -15.12650000 -6.05071000
Cd  1.51217000 -13.61420000 -4.53840000
Se  3.02502000 -12.10170000 -3.02502000
Cd  1.51238000 -10.58950000 -1.51238000
Se  3.02556000 -9.07825000  0.00035706
Cd  1.51393000 -7.56651000  1.51393000
Se  3.02697000 -6.05479000  3.02697000
Cd  1.51525000 -4.54118000  4.54118000
Se  3.02697000 -3.02697000  6.05479000
Cd  1.51393000 -1.51393000  7.56651000
Se  3.02556000 -0.00035706  9.07825000
Cd  1.51238000  1.51238000  10.58950000
Se  3.02502000  3.02502000  12.10170000
Cd  1.51217000  4.53840000  13.61420000
Se  3.02500000  6.05071000  15.12650000
Se  6.05071000 -15.12650000 -3.02500000
Cd  4.53840000 -13.61420000 -1.51217000
Se  6.05084000 -12.10190000  0.00088601
Cd  4.53852000 -10.58930000  1.51369000
Se  6.05114000 -9.07661000  3.02631000
Cd  4.53975000 -7.56468000  4.53975000
Se  6.05163000 -6.05163000  6.05163000
Cd  4.53975000 -4.53975000  7.56468000
Se  6.05114000 -3.02631000  9.07661000
Cd  4.53852000 -1.51369000  10.58930000
Se  6.05084000 -0.00088601  12.10190000
Cd  4.53840000  1.51217000  13.61420000
Se  6.05071000  3.02500000  15.12650000
Se  9.07613000 -15.12600000  0.00083524
Cd  7.56397000 -13.61380000  1.51364000
Se  9.07638000 -12.10150000  3.02640000
Cd  7.56360000 -10.58870000  4.53852000
Se  9.07561000 -9.07561000  6.05109000
Cd  7.56327000 -7.56327000  7.56327000
Se  9.07561000 -6.05109000  9.07561000
Cd  7.56360000 -4.53852000  10.58870000
Se  9.07638000 -3.02640000  12.10150000
Cd  7.56397000 -1.51364000  13.61380000
Se  9.07613000 -0.00083524  15.12600000
Cd  10.58910000 -13.61360000  4.53887000
Se  12.10120000 -12.10120000  6.05139000
Cd  10.58850000 -10.58850000  7.56363000
Se  12.10130000 -9.07638000  9.07638000
Cd  10.58850000 -7.56363000  10.58850000
Se  12.10120000 -6.05139000  12.10120000
Cd  10.58910000 -4.53887000  13.61360000
Se -12.10120000 -0.00117872 -12.10120000
Cd -13.61270000  1.51160000 -10.58830000
Se -12.10110000  3.02471000 -9.07556000
Cd -13.61310000  4.53741000 -7.56289000
Se -12.10100000  6.05002000 -6.05002000
Cd -13.61310000  7.56289000 -4.53741000
Se -12.10110000  9.07556000 -3.02471000
Cd -13.61270000  10.58830000 -1.51160000
Se -12.10120000  12.10120000  0.00117872
Cd -10.58910000 -4.53887000 -13.61360000
Se -9.07638000 -3.02640000 -12.10150000
Cd -10.58880000 -1.51409000 -10.58880000
Se -9.07611000 -0.00122790 -9.07611000
Cd -10.58870000  1.51155000 -7.56289000
Se -9.07650000  3.02514000 -6.05085000
Cd -10.58850000  4.53728000 -4.53728000
Se -9.07650000  6.05085000 -3.02514000
Cd -10.58870000  7.56289000 -1.51155000
Se -9.07611000  9.07611000  0.00122790
Cd -10.58880000  10.58880000  1.51409000
Se -9.07638000  12.10150000  3.02640000
Cd -10.58910000  13.61360000  4.53887000
Cd -7.56395000 -7.56395000 -13.61360000
Se -6.05133000 -6.05133000 -12.10130000
Cd -7.56360000 -4.53852000 -10.58870000
Se -6.05114000 -3.02631000 -9.07661000
Cd -7.56405000 -1.51465000 -7.56405000
Se -6.05298000 -0.00034802 -6.05298000
Cd -7.56543000  1.51146000 -4.53880000
Se -6.05418000  3.02680000 -3.02680000
Cd -7.56543000  4.53880000 -1.51146000
Se -6.05298000  6.05298000  0.00034802
Cd -7.56405000  7.56405000  1.51465000
Se -6.05114000  9.07661000  3.02631000
Cd -7.56360000  10.58870000  4.53852000
Se -6.05133000  12.10130000  6.05133000
Cd -7.56395000  13.61360000  7.56395000
Cd -4.53887000 -10.58910000 -13.61360000
Se -3.02640000 -9.07638000 -12.10150000
Cd -4.53852000 -7.56360000 -10.58870000
Se -3.02631000 -6.05114000 -9.07661000
Cd -4.53975000 -4.53975000 -7.56468000
Se -3.02697000 -3.02697000 -6.05479000
Cd -4.54118000 -1.51525000 -4.54118000
Se -3.02865000  0.00023789 -3.02865000
Cd -4.54171000  1.51316000 -1.51316000
Se -3.02865000  3.02865000 -0.00023789
Cd -4.54118000  4.54118000  1.51525000
Se -3.02697000  6.05479000  3.02697000
Cd -4.53975000  7.56468000  4.53975000
Se -3.02631000  9.07661000  6.05114000
Cd -4.53852000  10.58870000  7.56360000
Se -3.02640000  12.10150000  9.07638000
Cd -4.53887000  13.61360000  10.58910000
Se -0.00117872 -12.10120000 -12.10120000
Cd -1.51409000 -10.58880000 -10.58880000
Se -0.00122790 -9.07611000 -9.07611000
Cd -1.51465000 -7.56405000 -7.56405000
Se -0.00034802 -6.05298000 -6.05298000
Cd -1.51525000 -4.54118000 -4.54118000
Se  0.00023789 -3.02865000 -3.02865000
Cd -1.51441000 -1.51441000 -1.51441000
Se -0.00000000  0.00000000  0.00000000
Cd -1.51441000  1.51441000  1.51441000
Se  0.00023789  3.02865000  3.02865000
Cd -1.51525000  4.54118000  4.54118000
Se -0.00034802  6.05298000  6.05298000
Cd -1.51465000  7.56405000  7.56405000
Se -0.00122790  9.07611000  9.07611000
Cd -1.51409000  10.58880000  10.58880000
Se -0.00117872  12.10120000  12.10120000
Cd  1.51160000 -13.61270000 -10.58830000
Se  3.02471000 -12.10110000 -9.07556000
Cd  1.51155000 -10.58870000 -7.56289000
Se  3.02514000 -9.07650000 -6.05085000
Cd  1.51146000 -7.56543000 -4.53880000
Se  3.02680000 -6.05418000 -3.02680000
Cd  1.51316000 -4.54171000 -1.51316000
Se  3.02865000 -3.02865000 -0.00023789
Cd  1.51441000 -1.51441000  1.51441000
Se  3.02865000  0.00023789  3.02865000
Cd  1.51316000  1.51316000  4.54171000
Se  3.02680000  3.02680000  6.05418000
Cd  1.51146000  4.53880000  7.56543000
Se  3.02514000  6.05085000  9.07650000
Cd  1.51155000  7.56289000  10.58870000
Se  3.02471000  9.07556000  12.10110000
Cd  1.51160000  10.58830000  13.61270000
Cd  4.53741000 -13.61310000 -7.56289000
Se  6.05002000 -12.10100000 -6.05002000
Cd  4.53728000 -10.58850000 -4.53728000
Se  6.05085000 -9.07650000 -3.02514000
Cd  4.53880000 -7.56543000 -1.51146000
Se  6.05298000 -6.05298000  0.00034802
Cd  4.54118000 -4.54118000  1.51525000
Se  6.05479000 -3.02697000  3.02697000
Cd  4.54118000 -1.51525000  4.54118000
Se  6.05298000 -0.00034802  6.05298000
Cd  4.53880000  1.51146000  7.56543000
Se  6.05085000  3.02514000  9.07650000
Cd  4.53728000  4.53728000  10.58850000
Se  6.05002000  6.05002000  12.10100000
Cd  4.53741000  7.56289000  13.61310000
Cd  7.56289000 -13.61310000 -4.53741000
Se  9.07556000 -12.10110000 -3.02471000
Cd  7.56289000 -10.58870000 -1.51155000
Se  9.07611000 -9.07611000  0.00122790
Cd  7.56405000 -7.56405000  1.51465000
Se  9.07661000 -6.05114000  3.02631000
Cd  7.56468000 -4.53975000  4.53975000
Se  9.07661000 -3.02631000  6.05114000
Cd  7.56405000 -1.51465000  7.56405000
Se  9.07611000 -0.00122790  9.07611000
Cd  7.56289000  1.51155000  10.58870000
Se  9.07556000  3.02471000  12.10110000
Cd  7.56289000  4.53741000  13.61310000
Cd  10.58830000 -13.61270000 -1.51160000
Se  12.10120000 -12.10120000  0.00117872
Cd  10.58880000 -10.58880000  1.51409000
Se  12.10150000 -9.07638000  3.02640000
Cd  10.58870000 -7.56360000  4.53852000
Se  12.10130000 -6.05133000  6.05133000
Cd  10.58870000 -4.53852000  7.56360000
Se  12.10150000 -3.02640000  9.07638000
Cd  10.58880000 -1.51409000  10.58880000
Se  12.10120000 -0.00117872  12.10120000
Cd  10.58830000  1.51160000  13.61270000
Cd  13.61360000 -10.58910000  4.53887000
Cd  13.61360000 -7.56395000  7.56395000
Cd  13.61360000 -4.53887000  10.58910000
Se -9.07613000 -0.00083524 -15.12600000
Cd -10.58830000  1.51160000 -13.61270000
Se -9.07556000  3.02471000 -12.10110000
Cd -10.58770000  4.53696000 -10.58770000
Se -9.07534000  6.04967000 -9.07534000
Cd -10.58730000  7.56194000 -7.56194000
Se -9.07534000  9.07534000 -6.04967000
Cd -10.58770000  10.58770000 -4.53696000
Se -9.07556000  12.10110000 -3.02471000
Cd -10.58830000  13.61270000 -1.51160000
Se -9.07613000  15.12600000  0.00083524
Se -6.05160000 -3.02652000 -15.12620000
Cd -7.56397000 -1.51364000 -13.61380000
Se -6.05084000 -0.00088601 -12.10190000
Cd -7.56289000  1.51155000 -10.58870000
Se -6.05085000  3.02514000 -9.07650000
Cd -7.56278000  4.53722000 -7.56278000
Se -6.05140000  6.05140000 -6.05140000
Cd -7.56278000  7.56278000 -4.53722000
Se -6.05085000  9.07650000 -3.02514000
Cd -7.56289000  10.58870000 -1.51155000
Se -6.05084000  12.10190000  0.00088601
Cd -7.56397000  13.61380000  1.51364000
Se -6.05160000  15.12620000  3.02652000
Se -3.02652000 -6.05160000 -15.12620000
Cd -4.53886000 -4.53886000 -13.61400000
Se -3.02599000 -3.02599000 -12.10190000
Cd -4.53852000 -1.51369000 -10.58930000
Se -3.02556000 -0.00035706 -9.07825000
Cd -4.53880000  1.51146000 -7.56543000
Se -3.02680000  3.02680000 -6.05418000
Cd -4.53935000  4.53935000 -4.53935000
Se -3.02680000  6.05418000 -3.02680000
Cd -4.53880000  7.56543000 -1.51146000
Se -3.02556000  9.07825000  0.00035706
Cd -4.53852000  10.58930000  1.51369000
Se -3.02599000  12.10190000  3.02599000
Cd -4.53886000  13.61400000  4.53886000
Se -3.02652000  15.12620000  6.05160000
Se -0.00083524 -9.07613000 -15.12600000
Cd -1.51364000 -7.56397000 -13.61380000
Se -0.00088601 -6.05084000 -12.10190000
Cd -1.51369000 -4.53852000 -10.58930000
Se -0.00035706 -3.02556000 -9.07825000
Cd -1.51393000 -1.51393000 -7.56651000
Se  0.00000000  0.00000000 -6.05624000
Cd -1.51316000  1.51316000 -4.54171000
Se -0.00023789  3.02865000 -3.02865000
Cd -1.51316000  4.54171000 -1.51316000
Se -0.00000000  6.05624000  0.00000000
Cd -1.51393000  7.56651000  1.51393000
Se -0.00035706  9.07825000  3.02556000
Cd -1.51369000  10.58930000  4.53852000
Se -0.00088601  12.10190000  6.05084000
Cd -1.51364000  13.61380000  7.56397000
Se -0.00083524  15.12600000  9.07613000
Cd  1.51160000 -10.58830000 -13.61270000
Se  3.02471000 -9.07556000 -12.10110000
Cd  1.51155000 -7.56289000 -10.58870000
Se  3.02514000 -6.05085000 -9.07650000
Cd  1.51146000 -4.53880000 -7.56543000
Se  3.02680000 -3.02680000 -6.05418000
Cd  1.51316000 -1.51316000 -4.54171000
Se  3.02865000 -0.00023789 -3.02865000
Cd  1.51441000  1.51441000 -1.51441000
Se  3.02865000  3.02865000  0.00023789
Cd  1.51316000  4.54171000  1.51316000
Se  3.02680000  6.05418000  3.02680000
Cd  1.51146000  7.56543000  4.53880000
Se  3.02514000  9.07650000  6.05085000
Cd  1.51155000  10.58870000  7.56289000
Se  3.02471000  12.10110000  9.07556000
Cd  1.51160000  13.61270000  10.58830000
Cd  4.53696000 -10.58770000 -10.58770000
Se  6.04967000 -9.07534000 -9.07534000
Cd  4.53722000 -7.56278000 -7.56278000
Se  6.05140000 -6.05140000 -6.05140000
Cd  4.53935000 -4.53935000 -4.53935000
Se  6.05418000 -3.02680000 -3.02680000
Cd  4.54171000 -1.51316000 -1.51316000
Se  6.05624000  0.00000000  0.00000000
Cd  4.54171000  1.51316000  1.51316000
Se  6.05418000  3.02680000  3.02680000
Cd  4.53935000  4.53935000  4.53935000
Se  6.05140000  6.05140000  6.05140000
Cd  4.53722000  7.56278000  7.56278000
Se  6.04967000  9.07534000  9.07534000
Cd  4.53696000  10.58770000  10.58770000
Cd  7.56194000 -10.58730000 -7.56194000
Se  9.07534000 -9.07534000 -6.04967000
Cd  7.56278000 -7.56278000 -4.53722000
Se  9.07650000 -6.05085000 -3.02514000
Cd  7.56543000 -4.53880000 -1.51146000
Se  9.07825000 -3.02556000  0.00035706
Cd  7.56651000 -1.51393000  1.51393000
Se  9.07825000 -0.00035706  3.02556000
Cd  7.56543000  1.51146000  4.53880000
Se  9.07650000  3.02514000  6.05085000
Cd  7.56278000  4.53722000  7.56278000
Se  9.07534000  6.04967000  9.07534000
Cd  7.56194000  7.56194000  10.58730000
Cd  10.58770000 -10.58770000 -4.53696000
Se  12.10110000 -9.07556000 -3.02471000
Cd  10.58870000 -7.56289000 -1.51155000
Se  12.10190000 -6.05084000  0.00088601
Cd  10.58930000 -4.53852000  1.51369000
Se  12.10190000 -3.02599000  3.02599000
Cd  10.58930000 -1.51369000  4.53852000
Se  12.10190000 -0.00088601  6.05084000
Cd  10.58870000  1.51155000  7.56289000
Se  12.10110000  3.02471000  9.07556000
Cd  10.58770000  4.53696000  10.58770000
Cd  13.61270000 -10.58830000 -1.51160000
Se  15.12600000 -9.07613000  0.00083524
Cd  13.61380000 -7.56397000  1.51364000
Se  15.12620000 -6.05160000  3.02652000
Cd  13.61400000 -4.53886000  4.53886000
Se  15.12620000 -3.02652000  6.05160000
Cd  13.61380000 -1.51364000  7.56397000
Se  15.12600000 -0.00083524  9.07613000
Cd  13.61270000  1.51160000  10.58830000
Se -6.05071000  3.02500000 -15.12650000
Cd -7.56289000  4.53741000 -13.61310000
Se -6.05002000  6.05002000 -12.10100000
Cd -7.56194000  7.56194000 -10.58730000
Se -6.04967000  9.07534000 -9.07534000
Cd -7.56194000  10.58730000 -7.56194000
Se -6.05002000  12.10100000 -6.05002000
Cd -7.56289000  13.61310000 -4.53741000
Se -6.05071000  15.12650000 -3.02500000
Se -3.02563000 -0.00041697 -15.12690000
Cd -4.53840000  1.51217000 -13.61420000
Se -3.02502000  3.02502000 -12.10170000
Cd -4.53728000  4.53728000 -10.58850000
Se -3.02514000  6.05085000 -9.07650000
Cd -4.53722000  7.56278000 -7.56278000
Se -3.02514000  9.07650000 -6.05085000
Cd -4.53728000  10.58850000 -4.53728000
Se -3.02502000  12.10170000 -3.02502000
Cd -4.53840000  13.61420000 -1.51217000
Se -3.02563000  15.12690000  0.00041697
Se -0.00041697 -3.02563000 -15.12690000
Cd -1.51328000 -1.51328000 -13.61430000
Se  0.00000000 -0.00000000 -12.10180000
Cd -1.51238000  1.51238000 -10.58950000
Se  0.00035706  3.02556000 -9.07825000
Cd -1.51146000  4.53880000 -7.56543000
Se  0.00034802  6.05298000 -6.05298000
Cd -1.51146000  7.56543000 -4.53880000
Se  0.00035706  9.07825000 -3.02556000
Cd -1.51238000  10.58950000 -1.51238000
Se  0.00000000  12.10180000 -0.00000000
Cd -1.51328000  13.61430000  1.51328000
Se -0.00041697  15.12690000  3.02563000
Se  3.02500000 -6.05071000 -15.12650000
Cd  1.51217000 -4.53840000 -13.61420000
Se  3.02502000 -3.02502000 -12.10170000
Cd  1.51238000 -1.51238000 -10.58950000
Se  3.02556000  0.00035706 -9.07825000
Cd  1.51393000  1.51393000 -7.56651000
Se  3.02697000  3.02697000 -6.05479000
Cd  1.51525000  4.54118000 -4.54118000
Se  3.02697000  6.05479000 -3.02697000
Cd  1.51393000  7.56651000 -1.51393000
Se  3.02556000  9.07825000 -0.00035706
Cd  1.51238000  10.58950000  1.51238000
Se  3.02502000  12.10170000  3.02502000
Cd  1.51217000  13.61420000  4.53840000
Se  3.02500000  15.12650000  6.05071000
Cd  4.53741000 -7.56289000 -13.61310000
Se  6.05002000 -6.05002000 -12.10100000
Cd  4.53728000 -4.53728000 -10.58850000
Se  6.05085000 -3.02514000 -9.07650000
Cd  4.53880000 -1.51146000 -7.56543000
Se  6.05298000  0.00034802 -6.05298000
Cd  4.54118000  1.51525000 -4.54118000
Se  6.05479000  3.02697000 -3.02697000
Cd  4.54118000  4.54118000 -1.51525000
Se  6.05298000  6.05298000 -0.00034802
Cd  4.53880000  7.56543000  1.51146000
Se  6.05085000  9.07650000  3.02514000
Cd  4.53728000  10.58850000  4.53728000
Se  6.05002000  12.10100000  6.05002000
Cd  4.53741000  13.61310000  7.56289000
Cd  7.56194000 -7.56194000 -10.58730000
Se  9.07534000 -6.04967000 -9.07534000
Cd  7.56278000 -4.53722000 -7.56278000
Se  9.07650000 -3.02514000 -6.05085000
Cd  7.56543000 -1.51146000 -4.53880000
Se  9.07825000  0.00035706 -3.02556000
Cd  7.56651000  1.51393000 -1.51393000
Se  9.07825000  3.02556000 -0.00035706
Cd  7.56543000  4.53880000  1.51146000
Se  9.07650000  6.05085000  3.02514000
Cd  7.56278000  7.56278000  4.53722000
Se  9.07534000  9.07534000  6.04967000
Cd  7.56194000  10.58730000  7.56194000
Cd  10.58730000 -7.56194000 -7.56194000
Se  12.10100000 -6.05002000 -6.05002000
Cd  10.58850000 -4.53728000 -4.53728000
Se  12.10170000 -3.02502000 -3.02502000
Cd  10.58950000 -1.51238000 -1.51238000
Se  12.10180000 -0.00000000  0.00000000
Cd  10.58950000  1.51238000  1.51238000
Se  12.10170000  3.02502000  3.02502000
Cd  10.58850000  4.53728000  4.53728000
Se  12.10100000  6.05002000  6.05002000
Cd  10.58730000  7.56194000  7.56194000
Cd  13.61310000 -7.56289000 -4.53741000
Se  15.12650000 -6.05071000 -3.02500000
Cd  13.61420000 -4.53840000 -1.51217000
Se  15.12690000 -3.02563000  0.00041697
Cd  13.61430000 -1.51328000  1.51328000
Se  15.12690000 -0.00041697  3.02563000
Cd  13.61420000  1.51217000  4.53840000
Se  15.12650000  3.02500000  6.05071000
Cd  13.61310000  4.53741000  7.56289000
Se -3.02500000  6.05071000 -15.12650000
Cd -4.53741000  7.56289000 -13.61310000
Se -3.02471000  9.07556000 -12.10110000
Cd -4.53696000  10.58770000 -10.58770000
Se -3.02471000  12.10110000 -9.07556000
Cd -4.53741000  13.61310000 -7.56289000
Se -3.02500000  15.12650000 -6.05071000
Se  0.00041697  3.02563000 -15.12690000
Cd -1.51217000  4.53840000 -13.61420000
Se  0.00088601  6.05084000 -12.10190000
Cd -1.51155000  7.56289000 -10.58870000
Se  0.00122790  9.07611000 -9.07611000
Cd -1.51155000  10.58870000 -7.56289000
Se  0.00088601  12.10190000 -6.05084000
Cd -1.51217000  13.61420000 -4.53840000
Se  0.00041697  15.12690000 -3.02563000
Se  3.02563000  0.00041697 -15.12690000
Cd  1.51328000  1.51328000 -13.61430000
Se  3.02599000  3.02599000 -12.10190000
Cd  1.51369000  4.53852000 -10.58930000
Se  3.02631000  6.05114000 -9.07661000
Cd  1.51465000  7.56405000 -7.56405000
Se  3.02631000  9.07661000 -6.05114000
Cd  1.51369000  10.58930000 -4.53852000
Se  3.02599000  12.10190000 -3.02599000
Cd  1.51328000  13.61430000 -1.51328000
Se  3.02563000  15.12690000 -0.00041697
Se  6.05071000 -3.02500000 -15.12650000
Cd  4.53840000 -1.51217000 -13.61420000
Se  6.05084000  0.00088601 -12.10190000
Cd  4.53852000  1.51369000 -10.58930000
Se  6.05114000  3.02631000 -9.07661000
Cd  4.53975000  4.53975000 -7.56468000
Se  6.05163000  6.05163000 -6.05163000
Cd  4.53975000  7.56468000 -4.53975000
Se  6.05114000  9.07661000 -3.02631000
Cd  4.53852000  10.58930000 -1.51369000
Se  6.05084000  12.10190000 -0.00088601
Cd  4.53840000  13.61420000  1.51217000
Se  6.05071000  15.12650000  3.02500000
Cd  7.56289000 -4.53741000 -13.61310000
Se  9.07556000 -3.02471000 -12.10110000
Cd  7.56289000 -1.51155000 -10.58870000
Se  9.07611000  0.00122790 -9.07611000
Cd  7.56405000  1.51465000 -7.56405000
Se  9.07661000  3.02631000 -6.05114000
Cd  7.56468000  4.53975000 -4.53975000
Se  9.07661000  6.05114000 -3.02631000
Cd  7.56405000  7.56405000 -1.51465000
Se  9.07611000  9.07611000 -0.00122790
Cd  7.56289000  10.58870000  1.51155000
Se  9.07556000  12.10110000  3.02471000
Cd  7.56289000  13.61310000  4.53741000
Cd  10.58770000 -4.53696000 -10.58770000
Se  12.10110000 -3.02471000 -9.07556000
Cd  10.58870000 -1.51155000 -7.56289000
Se  12.10190000  0.00088601 -6.05084000
Cd  10.58930000  1.51369000 -4.53852000
Se  12.10190000  3.02599000 -3.02599000
Cd  10.58930000  4.53852000 -1.51369000
Se  12.10190000  6.05084000 -0.00088601
Cd  10.58870000  7.56289000  1.51155000
Se  12.10110000  9.07556000  3.02471000
Cd  10.58770000  10.58770000  4.53696000
Cd  13.61310000 -4.53741000 -7.56289000
Se  15.12650000 -3.02500000 -6.05071000
Cd  13.61420000 -1.51217000 -4.53840000
Se  15.12690000  0.00041697 -3.02563000
Cd  13.61430000  1.51328000 -1.51328000
Se  15.12690000  3.02563000 -0.00041697
Cd  13.61420000  4.53840000  1.51217000
Se  15.12650000  6.05071000  3.02500000
Cd  13.61310000  7.56289000  4.53741000
Se  0.00083524  9.07613000 -15.12600000
Cd -1.51160000  10.58830000 -13.61270000
Se  0.00117872  12.10120000 -12.10120000
Cd -1.51160000  13.61270000 -10.58830000
Se  0.00083524  15.12600000 -9.07613000
Se  3.02652000  6.05160000 -15.12620000
Cd  1.51364000  7.56397000 -13.61380000
Se  3.02640000  9.07638000 -12.10150000
Cd  1.51409000  10.58880000 -10.58880000
Se  3.02640000  12.10150000 -9.07638000
Cd  1.51364000  13.61380000 -7.56397000
Se  3.02652000  15.12620000 -6.05160000
Se  6.05160000  3.02652000 -15.12620000
Cd  4.53886000  4.53886000 -13.61400000
Se  6.05133000  6.05133000 -12.10130000
Cd  4.53852000  7.56360000 -10.58870000
Se  6.05109000  9.07561000 -9.07561000
Cd  4.53852000  10.58870000 -7.56360000
Se  6.05133000  12.10130000 -6.05133000
Cd  4.53886000  13.61400000 -4.53886000
Se  6.05160000  15.12620000 -3.02652000
Se  9.07613000  0.00083524 -15.12600000
Cd  7.56397000  1.51364000 -13.61380000
Se  9.07638000  3.02640000 -12.10150000
Cd  7.56360000  4.53852000 -10.58870000
Se  9.07561000  6.05109000 -9.07561000
Cd  7.56327000  7.56327000 -7.56327000
Se  9.07561000  9.07561000 -6.05109000
Cd  7.56360000  10.58870000 -4.53852000
Se  9.07638000  12.10150000 -3.02640000
Cd  7.56397000  13.61380000 -1.51364000
Se  9.07613000  15.12600000 -0.00083524
Cd  10.58830000 -1.51160000 -13.61270000
Se  12.10120000  0.00117872 -12.10120000
Cd  10.58880000  1.51409000 -10.58880000
Se  12.10150000  3.02640000 -9.07638000
Cd  10.58870000  4.53852000 -7.56360000
Se  12.10130000  6.05133000 -6.05133000
Cd  10.58870000  7.56360000 -4.53852000
Se  12.10150000  9.07638000 -3.02640000
Cd  10.58880000  10.58880000 -1.51409000
Se  12.10120000  12.10120000 -0.00117872
Cd  10.58830000  13.61270000  1.51160000
Cd  13.61270000 -1.51160000 -10.58830000
Se  15.12600000  0.00083524 -9.07613000
Cd  13.61380000  1.51364000 -7.56397000
Se  15.12620000  3.02652000 -6.05160000
Cd  13.61400000  4.53886000 -4.53886000
Se  15.12620000  6.05160000 -3.02652000
Cd  13.61380000  7.56397000 -1.51364000
Se  15.12600000  9.07613000 -0.00083524
Cd  13.61270000  10.58830000  1.51160000
Cd  4.53887000  10.58910000 -13.61360000
Se  6.05139000  12.10120000 -12.10120000
Cd  4.53887000  13.61360000 -10.58910000
Cd  7.56395000  7.56395000 -13.61360000
Se  9.07638000  9.07638000 -12.10130000
Cd  7.56363000  10.58850000 -10.58850000
Se  9.07638000  12.10130000 -9.07638000
Cd  7.56395000  13.61360000 -7.56395000
Cd  10.58910000  4.53887000 -13.61360000
Se  12.10120000  6.05139000 -12.10120000
Cd  10.58850000  7.56363000 -10.58850000
Se  12.10130000  9.07638000 -9.07638000
Cd  10.58850000  10.58850000 -7.56363000
Se  12.10120000  12.10120000 -6.05139000
Cd  10.58910000  13.61360000 -4.53887000
Cd  13.61360000  4.53887000 -10.58910000
Cd  13.61360000  7.56395000 -7.56395000
Cd  13.61360000  10.58910000 -4.53887000
